/*--------------------------------*- C++ -*----------------------------------*\
| =========                 |                                                 |
| \\      /  F ield         | OpenFOAM: The Open Source CFD Toolbox           |
|  \\    /   O peration     | Version:  2.1.x                                 |
|   \\  /    A nd           | Web:      www.OpenFOAM.org                      |
|    \\/     M anipulation  |                                                 |
\*---------------------------------------------------------------------------*/
FoamFile
{
    version     2.0;
    format      ascii;
    class       dictionary;
    location    "system";
    object      cyclicBoundaries;
}
// * * * * * * * * * * * * * * * * * * * * * * * * * * * * * * * * * * * * * //



// ************************************************************************* //

cyclicBoundaries
(
	boundary
	{
		cyclicBoundaryProperties
		{
			patchName			periodicX_half0;
			neighbourPatchName			periodicX_half1;
			nFaces			16;
			normal			(-1 0 0);
			boundaryPoints
			(
				(0 0 0)
				(0 15.2188 0)
				(0 15.2188 15.2188)
				(0 0 15.2188)
			);
		}
		cyclicBoundaryModel		standardCyclic;
	}
	boundary
	{
		cyclicBoundaryProperties
		{
			patchName			periodicX_half1;
			neighbourPatchName			periodicX_half0;
			nFaces			16;
			normal			(1 0 0);
			boundaryPoints
			(
				(15.2188 0 0)
				(15.2188 15.2188 0)
				(15.2188 15.2188 15.2188)
				(15.2188 0 15.2188)
			);
		}
		cyclicBoundaryModel		standardCyclic;
	}
	boundary
	{
		cyclicBoundaryProperties
		{
			patchName			periodicY_half0;
			neighbourPatchName			periodicY_half1;
			nFaces			16;
			normal			(0 1 0);
			boundaryPoints
			(
				(0 15.2188 0)
				(0 15.2188 15.2188)
				(15.2188 15.2188 15.2188)
				(15.2188 15.2188 0)
			);
		}
		cyclicBoundaryModel		standardCyclic;
	}
	boundary
	{
		cyclicBoundaryProperties
		{
			patchName			periodicY_half1;
			neighbourPatchName			periodicY_half0;
			nFaces			16;
			normal			(0 -1 0);
			boundaryPoints
			(
				(0 0 0)
				(0 0 15.2188)
				(15.2188 0 15.2188)
				(15.2188 0 0)
			);
		}
		cyclicBoundaryModel		standardCyclic;
	}
	boundary
	{
		cyclicBoundaryProperties
		{
			patchName			periodicZ_half0;
			neighbourPatchName			periodicZ_half1;
			nFaces			16;
			normal			(0 0 -1);
			boundaryPoints
			(
				(0 0 0)
				(0 15.2188 0)
				(15.2188 15.2188 0)
				(15.2188 0 0)
			);
		}
		cyclicBoundaryModel		standardCyclic;
	}
	boundary
	{
		cyclicBoundaryProperties
		{
			patchName			periodicZ_half1;
			neighbourPatchName			periodicZ_half0;
			nFaces			16;
			normal			(0 0 1);
			boundaryPoints
			(
				(0 0 15.2188)
				(0 15.2188 15.2188)
				(15.2188 15.2188 15.2188)
				(15.2188 0 15.2188)
			);
		}
		cyclicBoundaryModel		standardCyclic;
	}
);

// ************************************************************************* //
