/*---------------------------------------------------------------------------*\
| =========                 |                                                 |
| \\      /  F ield         | OpenFOAM: The Open Source CFD Toolbox           |
|  \\    /   O peration     | Version:  1.3                                   |
|   \\  /    A nd           | Web:      http://www.openfoam.org               |
|    \\/     M anipulation  |                                                 |
\*---------------------------------------------------------------------------*/

FoamFile
{
    version         2.0;
    format          ascii;

    root            "";
    case            "";
    instance        "";
    local           "";

    class          dictionary;
    object         pELandscapeDict;
}

// * * * * * * * * * * * * * * * * * * * * * * * * * * * * * * * * * * * * * //

// fieldName       landscape;
// pointA          (-4 -4 -4);
// pointB          (4 4 4);
// nBinsX          200;
// nBinsY          200;
// nBinsZ          200;
// rOvlp           0.9;
// peReq           -2.51;
// peRange         0.05; 
// oneSpecie       yes;
// molId           Ar;
// rMin		1.1;


fieldName       landscape;
startPoint	(-6 0 0);
endPoint	(6 0 0);
centrePoint	(0 0 0);
radius		2.5;
nBinsRadial	200;
avPointsPerBin	50;
rOvlp           0.01;
peReq           -2.51;
peRange         0.05; 
oneSpecie       yes;
probeId         Ar;
samplingMolId	C;
rMin		0.001;

// ************************************************************************* //
